Circuit: * C:\Users\ragae\OneDrive - HTL-Rankweil\Unterrichtsvorbereitung\Werkstatt\1\UV_Übung Ewigblink Solar\EBS.asc

Direct Newton iteration for .op point succeeded.

Date: Fri Mar 10 12:48:27 2023
Total elapsed time: 0.189 seconds.

tnom = 27
temp = 27
method = modified trap
totiter = 6209
traniter = 6194
tranpoints = 2106
accept = 1844
rejected = 262
matrix size = 20
fillins = 20
solver = Normal
Matrix Compiler1: 2.47 KB object code size  0.6/0.5/[0.2]
Matrix Compiler2: 1.98 KB object code size  0.3/0.6/[0.2]

